results/PD39_V8_LINE_REPAIR_HOLDOUT.csv
solution,line,gamma,condition,status,error_type,error_message,alpha,margin,stable,robust,equilibrium_residual,voltage_min_pu,voltage_max_pu,connected,load_served
line_1,1,1.091552734375,C01,ok,,,0.6936065411168044,-0.6936065411168044,false,false,1.6023904169994855e-12,0.9819999933242798,1.0635000467300415,true,true
line_1,1,1.091552734375,C02,ok,,,45.487154534393326,-45.487154534393326,false,false,2.7835638452357528e-11,0.23167004826526386,1.0635000467300455,true,true
line_1,1,1.091552734375,C03,ok,,,0.5583700248498954,-0.5583700248498954,false,false,1.7641982589704812e-12,0.9819999933242798,1.0635000467300435,true,true
line_1,1,1.091552734375,C04,ok,,,-0.14232772347442474,0.14232772347442474,true,true,1.2285406333601895e-12,0.9819999933242798,1.063500046730033,true,true
line_1,1,1.091552734375,C05,ok,,,0.764744020470128,-0.764744020470128,false,false,1.6503363741856287e-12,0.9819999933242798,1.0635000467300417,true,true
line_1,1,1.091552734375,C06,ok,,,-0.14600335613869797,0.14600335613869797,true,true,1.1972972034543052e-12,0.9819999933242798,1.0635000467300415,true,true
line_1,1,1.091552734375,C07,ok,,,0.6043283038359938,-0.6043283038359938,false,false,1.0781658288210167e-12,0.9819999933242798,1.0635000467300484,true,true
line_1,1,1.091552734375,C08,ok,,,0.45906048940349176,-0.45906048940349176,false,false,1.3682914844053407e-12,0.9819999933242798,1.0635000467300444,true,true
line_1,1,1.091552734375,C09,ok,,,-0.15537869445193103,0.15537869445193103,true,true,1.1036657249307844e-12,0.9819999933242798,1.0635000467300417,true,true
line_1,1,1.091552734375,C10,ok,,,-0.1668170896349795,0.1668170896349795,true,true,1.167871451243126e-12,0.9819999933242798,1.0635000467300413,true,true
line_1,1,1.091552734375,C11,ok,,,-0.09496629181813289,0.09496629181813289,true,true,1.3677920968241085e-12,0.9819999933242798,1.0635000467300415,true,true
line_1,1,1.091552734375,C12,ok,,,-0.05263642318431283,0.05263642318431283,true,true,1.0554632293593332e-12,0.9819999933242798,1.0635000467300375,true,true
line_1,1,1.091552734375,C13,ok,,,-0.15670485856058186,0.15670485856058186,true,true,1.2508299490606134e-12,0.9819999933242798,1.0635000467300417,true,true
line_1,1,1.091552734375,C14,ok,,,-0.1475518356172796,0.1475518356172796,true,true,1.151673070172156e-12,0.9819999933242798,1.0635000467300357,true,true
line_1,1,1.091552734375,C15,ok,,,-0.15739682307190384,0.15739682307190384,true,true,2.2337397364570363e-12,0.9819999933242798,1.0635000467300422,true,true
line_1,1,1.091552734375,C16,ok,,,0.3764046473348523,-0.3764046473348523,false,false,1.3349886029367316e-12,0.9819999933242798,1.063500046730042,true,true
line_1,1,1.091552734375,C17,ok,,,0.17103084446960964,-0.17103084446960964,false,false,1.2694506425771176e-12,0.9819999933242798,1.0635000467300495,true,true
line_1,1,1.091552734375,C18,ok,,,0.5977956358760395,-0.5977956358760395,false,false,1.3881431995938776e-12,0.9819999933242798,1.0635000467300435,true,true
line_1,1,1.091552734375,C19,ok,,,-0.07446422381032279,0.07446422381032279,true,true,8.076071397621171e-13,0.9819999933242798,1.0635000467300457,true,true
line_1,1,1.091552734375,C20,ok,,,0.5972714323924793,-0.5972714323924793,false,false,1.1259662980670637e-12,0.9819999933242798,1.0635000467300413,true,true
line_1,1,1.091552734375,C21,ok,,,-0.09465832696451194,0.09465832696451194,true,true,1.2288575846067968e-12,0.9819999933242798,1.0635000467300404,true,true
line_1,1,1.091552734375,C22,ok,,,-0.16337163934788157,0.16337163934788157,true,true,1.095044930845741e-12,0.9819999933242798,1.063500046730042,true,true
line_1,1,1.091552734375,C23,ok,,,-0.09120716677691434,0.09120716677691434,true,true,1.481638290738395e-12,0.9819999933242798,1.0635000467300497,true,true
line_1,1,1.091552734375,C24,ok,,,0.004861127083545715,-0.004861127083545715,false,false,1.2974054868782256e-12,0.9819999933242798,1.0635000467300417,true,true
line_2,2,1.137451171875,C01,ok,,,0.6936129692412225,-0.6936129692412225,false,false,3.204776601985141e-12,0.9819999933242798,1.0635000467300415,true,true
line_2,2,1.137451171875,C02,ok,,,0.040136124084328144,-0.040136124084328144,false,false,1.3186758393017466e-12,0.9819999933242798,1.063500046730042,true,true
line_2,2,1.137451171875,C03,ok,,,0.5377743053089903,-0.5377743053089903,false,false,1.1879777750048323e-12,0.9819999933242798,1.0635000467300355,true,true
line_2,2,1.137451171875,C04,ok,,,-0.1423307499911606,0.1423307499911606,true,true,1.4453419216002231e-12,0.9819999933242798,1.0635000467300393,true,true
line_2,2,1.137451171875,C05,ok,,,0.7748898069087686,-0.7748898069087686,false,false,6.807637543515718e-13,0.9819999933242798,1.0635000467300415,true,true
line_2,2,1.137451171875,C06,ok,,,-0.14591007258791377,0.14591007258791377,true,true,1.154536589045223e-12,0.9819999933242798,1.0635000467300422,true,true
line_2,2,1.137451171875,C07,ok,,,0.6175047378881486,-0.6175047378881486,false,false,1.3477072860262713e-12,0.9819999933242798,1.0635000467300417,true,true
line_2,2,1.137451171875,C08,ok,,,0.4648243928086146,-0.4648243928086146,false,false,1.3076752862410425e-12,0.9819999933242798,1.0635000467300415,true,true
line_2,2,1.137451171875,C09,ok,,,-0.15513622094149376,0.15513622094149376,true,true,1.2476221238347999e-12,0.9819999933242798,1.0635000467300417,true,true
line_2,2,1.137451171875,C10,ok,,,-0.16654377005181648,0.16654377005181648,true,true,7.327820870545104e-13,0.9819999933242798,1.0635000467300415,true,true
line_2,2,1.137451171875,C11,ok,,,-0.09473507662322458,0.09473507662322458,true,true,1.3442094744650721e-12,0.9819999933242798,1.0635000467300415,true,true
line_2,2,1.137451171875,C12,ok,,,-0.057220835022324494,0.057220835022324494,true,true,1.3165804345393765e-12,0.9819999933242798,1.063500046730043,true,true
line_2,2,1.137451171875,C13,ok,,,-0.15658819113140654,0.15658819113140654,true,true,1.0006639592484905e-12,0.9819999933242798,1.063500046730042,true,true
line_2,2,1.137451171875,C14,ok,,,-0.1475809120114218,0.1475809120114218,true,true,1.1007140847663082e-12,0.9819999933242798,1.0635000467300395,true,true
line_2,2,1.137451171875,C15,ok,,,-0.15694901975199058,0.15694901975199058,true,true,1.4184247326502179e-12,0.9819999933242798,1.0635000467300417,true,true
line_2,2,1.137451171875,C16,ok,,,0.3677229086360557,-0.3677229086360557,false,false,1.2033700082809976e-12,0.9819999933242798,1.063500046730043,true,true
line_2,2,1.137451171875,C17,ok,,,0.19346795591632582,-0.19346795591632582,false,false,1.1504396448355127e-12,0.9819999933242798,1.063500046730043,true,true
line_2,2,1.137451171875,C18,ok,,,0.5950012117398934,-0.5950012117398934,false,false,1.3881431995938776e-12,0.9819999933242798,1.0635000467300415,true,true
line_2,2,1.137451171875,C19,ok,,,-0.07439615193925023,0.07439615193925023,true,true,1.0498892816907522e-12,0.9819999933242798,1.0635000467300464,true,true
line_2,2,1.137451171875,C20,ok,,,0.6055582558694423,-0.6055582558694423,false,false,1.231525638510851e-12,0.9819999933242798,1.0635000467300322,true,true
line_2,2,1.137451171875,C21,ok,,,-0.17842037966703123,0.17842037966703123,true,true,1.3107814235805833e-12,0.9819999933242798,1.0635000467300402,true,true
line_2,2,1.137451171875,C22,ok,,,-0.16320772706012093,0.16320772706012093,true,true,1.1792791562954133e-12,0.9819999933242798,1.0635000467300417,true,true
line_2,2,1.137451171875,C23,ok,,,-0.09103171076272072,0.09103171076272072,true,true,1.4527903291680966e-12,0.9819999933242798,1.0635000467300422,true,true
line_2,2,1.137451171875,C24,ok,,,0.0014926026434691824,-0.0014926026434691824,false,false,1.2974054868782256e-12,0.9819999933242798,1.0635000467300415,true,true
line_27,27,1.193603515625,C01,ok,,,0.6711171718635196,-0.6711171718635196,false,false,1.4040605308227348e-12,0.9819999933242798,1.0635000467300417,true,true
line_27,27,1.193603515625,C02,ok,,,0.0523755240608022,-0.0523755240608022,false,false,1.4945309235523146e-12,0.9819999933242798,1.0635000467300417,true,true
line_27,27,1.193603515625,C03,ok,,,0.5412612908813683,-0.5412612908813683,false,false,1.0129631920800132e-12,0.9819999933242798,1.0635000467300415,true,true
line_27,27,1.193603515625,C04,ok,,,-0.1435554924214059,0.1435554924214059,true,true,1.3971638575468822e-12,0.9819999933242798,1.063500046730037,true,true
line_27,27,1.193603515625,C05,ok,,,0.7582436274454052,-0.7582436274454052,false,false,1.2377522806392214e-12,0.9819999933242798,1.0635000467300415,true,true
line_27,27,1.193603515625,C06,ok,,,-0.14534897305636563,0.14534897305636563,true,true,1.1117759746361405e-12,0.9819999933242798,1.0635000467300422,true,true
line_27,27,1.193603515625,C07,ok,,,0.6108234971602986,-0.6108234971602986,false,false,1.3477072860262713e-12,0.9819999933242798,1.0635000467300446,true,true
line_27,27,1.193603515625,C08,ok,,,0.46646201356678196,-0.46646201356678196,false,false,1.3076752862410425e-12,0.9819999933242798,1.0635000467300415,true,true
line_27,27,1.193603515625,C09,ok,,,-0.15445501472470813,0.15445501472470813,true,true,1.478552180409991e-12,0.9819999933242798,1.0635000467300417,true,true
line_27,27,1.193603515625,C10,ok,,,-0.16646096804238664,0.16646096804238664,true,true,1.4655641741090207e-12,0.9819999933242798,1.0635000467300415,true,true
line_27,27,1.193603515625,C11,ok,,,-0.0925862356520992,0.0925862356520992,true,true,1.3206268521060358e-12,0.9819999933242798,1.063500046730041,true,true
line_27,27,1.193603515625,C12,ok,,,-0.060626133610812954,0.060626133610812954,true,true,3.53909322573439e-12,0.9819999933242798,1.063500046730045,true,true
line_27,27,1.193603515625,C13,ok,,,-0.15585517891421274,0.15585517891421274,true,true,1.2508299490606134e-12,0.9819999933242798,1.0635000467300422,true,true
line_27,27,1.193603515625,C14,ok,,,-0.14859966532870492,0.14859966532870492,true,true,1.7851951214373997e-12,0.9819999933242798,1.0635000467300388,true,true
line_27,27,1.193603515625,C15,ok,,,-0.156556974500135,0.156556974500135,true,true,1.3402438418742217e-12,0.9819999933242798,1.0635000467300417,true,true
line_27,27,1.193603515625,C16,ok,,,0.3763629830127264,-0.3763629830127264,false,false,1.2893250088724974e-12,0.9819999933242798,1.0635000467300435,true,true
line_27,27,1.193603515625,C17,ok,,,0.15718694182311055,-0.15718694182311055,false,false,1.1504396448355127e-12,0.9819999933242798,1.0635000467300448,true,true
line_27,27,1.193603515625,C18,ok,,,0.6008843654403844,-0.6008843654403844,false,false,1.3881431995938776e-12,0.9819999933242798,1.0635000467300428,true,true
line_27,27,1.193603515625,C19,ok,,,-0.16085949474226233,0.16085949474226233,true,true,1.0498892816907522e-12,0.9819999933242798,1.0635000467300417,true,true
line_27,27,1.193603515625,C20,ok,,,0.5812923093296183,-0.5812923093296183,false,false,1.4476709546576535e-12,0.9819999933242798,1.0635000467300268,true,true
line_27,27,1.193603515625,C21,ok,,,-0.09264571252131816,0.09264571252131816,true,true,1.1469337456330102e-12,0.9819999933242798,1.0635000467300402,true,true
line_27,27,1.193603515625,C22,ok,,,-0.16273339294384365,0.16273339294384365,true,true,1.3477476071947582e-12,0.9819999933242798,1.0635000467300422,true,true
line_27,27,1.193603515625,C23,ok,,,-0.08914052988447609,0.08914052988447609,true,true,1.4527903291680966e-12,0.9819999933242798,1.0635000467300422,true,true
line_27,27,1.193603515625,C24,ok,,,0.005927118886565503,-0.005927118886565503,false,false,1.5754209483521311e-12,0.9819999933242798,1.0635000467300417,true,true
line_46,46,1.21142578125,C01,ok,,,0.6852042425256903,-0.6852042425256903,false,false,1.6023904169033262e-12,0.9819999933242798,1.0635000467300533,true,true
line_46,46,1.21142578125,C02,ok,,,0.0429079197998007,-0.0429079197998007,false,false,1.054940671441397e-12,0.9819999933242798,1.06350004673004,true,true
line_46,46,1.21142578125,C03,ok,,,0.5296933774195609,-0.5296933774195609,false,false,1.3364749968804365e-12,0.9819999933242798,1.063500046730039,true,true
line_46,46,1.21142578125,C04,ok,,,-0.14390601797393637,0.14390601797393637,true,true,1.25262966538686e-12,0.9819999933242798,1.063500046730041,true,true
line_46,46,1.21142578125,C05,ok,,,0.748193572957762,-0.748193572957762,false,false,1.2377522806392214e-12,0.9819999933242798,1.0635000467300415,true,true
line_46,46,1.21142578125,C06,ok,,,-0.1454019072549984,0.1454019072549984,true,true,1.28281843227247e-12,0.9819999933242798,1.0635000467300417,true,true
line_46,46,1.21142578125,C07,ok,,,0.590314133360093,-0.590314133360093,false,false,1.4375544384280225e-12,0.9819999933242798,1.0635000467300435,true,true
line_46,46,1.21142578125,C08,ok,,,0.43975020969971834,-0.43975020969971834,false,false,2.1794588104017374e-12,0.9819999933242798,1.063500046730042,true,true
line_46,46,1.21142578125,C09,ok,,,-0.15481605934750198,0.15481605934750198,true,true,9.357165928760999e-13,0.9819999933242798,1.0635000467300415,true,true
line_46,46,1.21142578125,C10,ok,,,-0.16625522569329604,0.16625522569329604,true,true,1.282368652345393e-12,0.9819999933242798,1.0635000467300415,true,true
line_46,46,1.21142578125,C11,ok,,,-0.0917176593149542,0.0917176593149542,true,true,1.4621225862602539e-12,0.9819999933242798,1.0635000467300426,true,true
line_46,46,1.21142578125,C12,ok,,,4.536448156821403,-4.536448156821403,false,false,3.539105785426427e-12,0.3352218958073676,1.063500046730042,true,true
line_46,46,1.21142578125,C13,ok,,,-0.15570945221039115,0.15570945221039115,true,true,1.2586476362422421e-12,0.9819999933242798,1.0635000467300415,true,true
line_46,46,1.21142578125,C14,ok,,,-0.14866806878081779,0.14866806878081779,true,true,9.78412519792274e-13,0.9819999933242798,1.0635000467300153,true,true
line_46,46,1.21142578125,C15,ok,,,-0.15579019971257307,0.15579019971257307,true,true,1.2508942524159403e-12,0.9819999933242798,1.0635000467300422,true,true
line_46,46,1.21142578125,C16,ok,,,0.36904928715550983,-0.36904928715550983,false,false,1.2463475085767474e-12,0.9819999933242798,1.0635000467300415,true,true
line_46,46,1.21142578125,C17,ok,,,0.19857516682674814,-0.19857516682674814,false,false,1.2892858088673851e-12,0.9819999933242798,1.063500046730037,true,true
line_46,46,1.21142578125,C18,ok,,,0.578826904211288,-0.578826904211288,false,false,1.2030574396480272e-12,0.9819999933242798,1.0635000467300315,true,true
line_46,46,1.21142578125,C19,ok,,,-0.160738749948241,0.160738749948241,true,true,1.2114107096431756e-12,0.9819999933242798,1.0635000467300477,true,true
line_46,46,1.21142578125,C20,ok,,,0.5993044044747358,-0.5993044044747358,false,false,1.2868186263623586e-12,0.9819999933242798,1.06350004673004,true,true
line_46,46,1.21142578125,C21,ok,,,-0.17815414263467827,0.17815414263467827,true,true,1.2288575846067968e-12,0.9819999933242798,1.0635000467300408,true,true
line_46,46,1.21142578125,C22,ok,,,-0.1623832762361638,0.1623832762361638,true,true,1.2635133817450858e-12,0.9819999933242798,1.0635000467300428,true,true
line_46,46,1.21142578125,C23,ok,,,-0.0889210344932438,0.0889210344932438,true,true,9.987933513030663e-13,0.9819999933242798,1.0635000467300422,true,true
line_46,46,1.21142578125,C24,ok,,,-0.0013981469098761062,0.0013981469098761062,true,false,1.4132452624923532e-12,0.9819999933242798,1.0635000467300415,true,true
